demo_data/network_edges.csv
edge_id,from_node_id,to_node_id,feeder_id,substation_id,edge_type,conductor_type,phase,length_miles,length_ft,impedance_r_ohm_per_mile,impedance_x_ohm_per_mile,impedance_z0_ohm_per_mile,rated_amps,nominal_voltage_kv,num_phases,is_overhead,installation_year,status
EDGE-000001,SUB-001,FDR-0001-HEAD,FDR-0001,SUB-001,bus_tie,795 ACSR,ABC,0.01,52.8,0.1198,0.355,0.26,700,12.47,3,1,,closed
EDGE-000002,FDR-0001-HEAD,JCT-FDR-0001-001,FDR-0001,SUB-001,primary_overhead,795 ACSR,ABC,0.01,52.8,0.1397,0.3847,0.2832,700,12.47,3,1,,closed
EDGE-000003,JCT-FDR-0001-001,FUSE-XFMR-000001,FDR-0001,SUB-001,lateral_overhead,#2 ACSR,B,0.002,9.5,0.8166,0.4874,0.6985,150,12.47,1,1,,closed
EDGE-000004,FUSE-XFMR-000001,XFMR-000001,FDR-0001,SUB-001,lateral_overhead,#2 ACSR,B,0.01,53.9,0.9208,0.5359,0.6985,150,12.47,1,1,,closed
EDGE-000005,JCT-FDR-0001-001,FUSE-XFMR-000002,FDR-0001,SUB-001,lateral_overhead,1/0 AL,A,0.002,8.7,0.6297,0.4412,0.5345,230,12.47,1,1,,closed
EDGE-000006,FUSE-XFMR-000002,XFMR-000002,FDR-0001,SUB-001,lateral_overhead,1/0 AL,A,0.009,49.4,0.5405,0.4958,0.5345,230,12.47,1,1,,closed
EDGE-000007,JCT-FDR-0001-001,FUSE-XFMR-000003,FDR-0001,SUB-001,lateral_overhead,#4 CU,A,0.003,14.3,1.3756,0.5551,1.007,100,12.47,1,1,,closed
EDGE-000008,FUSE-XFMR-000003,XFMR-000003,FDR-0001,SUB-001,lateral_overhead,#4 CU,A,0.015,80.8,1.4337,0.4911,1.007,100,12.47,1,1,,closed
EDGE-000009,JCT-FDR-0001-001,FUSE-XFMR-000004,FDR-0001,SUB-001,lateral_overhead,#2 ACSR,AC,0.005,25.3,0.9096,0.5512,0.6985,150,12.47,2,1,,closed
EDGE-000010,FUSE-XFMR-000004,XFMR-000004,FDR-0001,SUB-001,lateral_overhead,#2 ACSR,AC,0.027,143.6,0.8167,0.5052,0.6985,150,12.47,2,1,,closed
EDGE-000011,JCT-FDR-0001-001,FUSE-XFMR-000005,FDR-0001,SUB-001,lateral_overhead,#4 CU,BC,0.005,28.5,1.4565,0.5068,1.007,100,12.47,2,1,,closed
EDGE-000012,FUSE-XFMR-000005,XFMR-000005,FDR-0001,SUB-001,lateral_overhead,#4 CU,BC,0.031,161.6,1.3547,0.5028,1.007,100,12.47,2,1,,closed
EDGE-000013,JCT-FDR-0001-001,FUSE-XFMR-000006,FDR-0001,SUB-001,lateral_overhead,4/0 AL,AB,0.007,37.2,0.2877,0.4587,0.3655,340,12.47,2,1,,closed
EDGE-000014,FUSE-XFMR-000006,XFMR-000006,FDR-0001,SUB-001,lateral_overhead,4/0 AL,AB,0.04,210.9,0.2757,0.4139,0.3655,340,12.47,2,1,,closed
EDGE-000015,JCT-FDR-0001-001,FUSE-XFMR-000007,FDR-0001,SUB-001,lateral_overhead,1/0 AL,AB,0.009,46.7,0.5844,0.5208,0.5345,230,12.47,2,1,,closed
EDGE-000016,FUSE-XFMR-000007,XFMR-000007,FDR-0001,SUB-001,lateral_overhead,1/0 AL,AB,0.05,264.8,0.5639,0.4528,0.5345,230,12.47,2,1,,closed
EDGE-000017,JCT-FDR-0001-001,FUSE-XFMR-000008,FDR-0001,SUB-001,lateral_underground,#4 CU,A,0.009,49.9,1.6158,0.4928,1.007,100,12.47,1,0,,closed
EDGE-000018,FUSE-XFMR-000008,XFMR-000008,FDR-0001,SUB-001,lateral_underground,#4 CU,A,0.054,282.7,1.419,0.5221,1.007,100,12.47,1,0,,closed
EDGE-000019,JCT-FDR-0001-001,FUSE-XFMR-000009,FDR-0001,SUB-001,lateral_overhead,4/0 AL,ABC,0.011,57.0,0.2979,0.4354,0.3655,340,12.47,3,1,,closed
EDGE-000020,FUSE-XFMR-000009,XFMR-000009,FDR-0001,SUB-001,lateral_overhead,4/0 AL,ABC,0.061,323.1,0.2782,0.397,0.3655,340,12.47,3,1,,closed
EDGE-000021,JCT-FDR-0001-001,FUSE-XFMR-000010,FDR-0001,SUB-001,lateral_overhead,4/0 AL,AB,0.012,65.7,0.3161,0.4481,0.3655,340,12.47,2,1,,closed
EDGE-000022,FUSE-XFMR-000010,XFMR-000010,FDR-0001,SUB-001,lateral_overhead,4/0 AL,AB,0.071,372.5,0.2823,0.4681,0.3655,340,12.47,2,1,,closed
EDGE-000023,JCT-FDR-0001-001,FUSE-XFMR-000011,FDR-0001,SUB-001,lateral_overhead,#2 ACSR,A,0.013,69.7,0.8943,0.5073,0.6985,150,12.47,1,1,,closed
EDGE-000024,FUSE-XFMR-000011,XFMR-000011,FDR-0001,SUB-001,lateral_overhead,#2 ACSR,A,0.075,394.9,0.9388,0.5401,0.6985,150,12.47,1,1,,closed
EDGE-000025,JCT-FDR-0001-001,FUSE-XFMR-000012,FDR-0001,SUB-001,lateral_overhead,#2 ACSR,A,0.015,78.4,0.9498,0.5453,0.6985,150,12.47,1,1,,closed
EDGE-000026,FUSE-XFMR-000012,XFMR-000012,FDR-0001,SUB-001,lateral_overhead,#2 ACSR,A,0.084,444.3,0.8594,0.453,0.6985,150,12.47,1,1,,closed
EDGE-000027,JCT-FDR-0001-001,FUSE-XFMR-000013,FDR-0001,SUB-001,lateral_underground,#2 ACSR,AC,0.016,84.0,0.8258,0.4927,0.6985,150,12.47,2,0,,closed
EDGE-000028,FUSE-XFMR-000013,XFMR-000013,FDR-0001,SUB-001,lateral_underground,#2 ACSR,AC,0.09,475.7,0.9055,0.5133,0.6985,150,12.47,2,0,,closed
EDGE-000029,JCT-FDR-0001-001,FUSE-XFMR-000014,FDR-0001,SUB-001,lateral_overhead,#4 CU,AB,0.017,91.9,1.6169,0.5559,1.007,100,12.47,2,1,,closed
EDGE-000030,FUSE-XFMR-000014,XFMR-000014,FDR-0001,SUB-001,lateral_overhead,#4 CU,AB,0.099,520.6,1.5426,0.4869,1.007,100,12.47,2,1,,closed
EDGE-000031,JCT-FDR-0001-001,FUSE-XFMR-000015,FDR-0001,SUB-001,lateral_overhead,#2 ACSR,C,0.019,102.2,0.8975,0.5011,0.6985,150,12.47,1,1,,closed
EDGE-000032,FUSE-XFMR-000015,XFMR-000015,FDR-0001,SUB-001,lateral_overhead,#2 ACSR,C,0.11,579.0,0.899,0.5491,0.6985,150,12.47,1,1,,closed
EDGE-000033,JCT-FDR-0001-001,FUSE-XFMR-000016,FDR-0001,SUB-001,lateral_overhead,#2 ACSR,BC,0.021,110.1,0.8378,0.4523,0.6985,150,12.47,2,1,,closed
EDGE-000034,FUSE-XFMR-000016,XFMR-000016,FDR-0001,SUB-001,lateral_overhead,#2 ACSR,BC,0.118,623.8,0.8425,0.5178,0.6985,150,12.47,2,1,,closed
EDGE-000035,JCT-FDR-0001-001,FUSE-XFMR-000017,FDR-0001,SUB-001,lateral_overhead,#4 CU,C,0.022,114.8,1.4735,0.4997,1.007,100,12.47,1,1,,closed
EDGE-000036,FUSE-XFMR-000017,XFMR-000017,FDR-0001,SUB-001,lateral_overhead,#4 CU,C,0.123,650.8,1.4981,0.4962,1.007,100,12.47,1,1,,closed
EDGE-000037,JCT-FDR-0001-001,FUSE-XFMR-000018,FDR-0001,SUB-001,lateral_overhead,4/0 AL,C,0.023,122.8,0.3051,0.4275,0.3655,340,12.47,1,1,,closed
EDGE-000038,FUSE-XFMR-000018,XFMR-000018,FDR-0001,SUB-001,lateral_overhead,4/0 AL,C,0.132,695.6,0.2779,0.4349,0.3655,340,12.47,1,1,,closed
EDGE-000039,JCT-FDR-0001-001,FUSE-XFMR-000019,FDR-0001,SUB-001,lateral_underground,4/0 AL,A,0.024,126.7,0.2863,0.3994,0.3655,340,12.47,1,0,,closed
EDGE-000040,FUSE-XFMR-000019,XFMR-000019,FDR-0001,SUB-001,lateral_underground,4/0 AL,A,0.136,718.1,0.304,0.4077,0.3655,340,12.47,1,0,,closed
EDGE-000041,JCT-FDR-0001-001,FUSE-XFMR-000020,FDR-0001,SUB-001,lateral_overhead,#2 ACSR,BC,0.026,137.8,0.8195,0.5473,0.6985,150,12.47,2,1,,closed
EDGE-000042,FUSE-XFMR-000020,XFMR-000020,FDR-0001,SUB-001,lateral_overhead,#2 ACSR,BC,0.148,780.9,0.8667,0.4647,0.6985,150,12.47,2,1,,closed
EDGE-000043,JCT-FDR-0001-001,FUSE-XFMR-000021,FDR-0001,SUB-001,lateral_overhead,1/0 AL,AB,0.027,140.2,0.6256,0.4427,0.5345,230,12.47,2,1,,closed
EDGE-000044,FUSE-XFMR-000021,XFMR-000021,FDR-0001,SUB-001,lateral_overhead,1/0 AL,AB,0.15,794.4,0.5497,0.4671,0.5345,230,12.47,2,1,,closed
EDGE-000045,JCT-FDR-0001-001,FUSE-XFMR-000022,FDR-0001,SUB-001,lateral_overhead,1/0 AL,ABC,0.028,148.9,0.5399,0.442,0.5345,230,12.47,3,1,,closed
EDGE-000046,FUSE-XFMR-000022,XFMR-000022,FDR-0001,SUB-001,lateral_overhead,1/0 AL,ABC,0.16,843.7,0.5709,0.4364,0.5345,230,12.47,3,1,,closed
EDGE-000047,JCT-FDR-0001-001,FUSE-XFMR-000023,FDR-0001,SUB-001,lateral_overhead,4/0 AL,A,0.029,155.2,0.3027,0.4227,0.3655,340,12.47,1,1,,closed
EDGE-000048,FUSE-XFMR-000023,XFMR-000023,FDR-0001,SUB-001,lateral_overhead,4/0 AL,A,0.167,879.6,0.2984,0.4717,0.3655,340,12.47,1,1,,closed
EDGE-000049,JCT-FDR-0001-001,FUSE-XFMR-000024,FDR-0001,SUB-001,lateral_overhead,1/0 AL,A,0.03,160.8,0.5711,0.4333,0.5345,230,12.47,1,1,,closed
EDGE-000050,FUSE-XFMR-000024,XFMR-000024,FDR-0001,SUB-001,lateral_overhead,1/0 AL,A,0.173,911.1,0.5368,0.4954,0.5345,230,12.47,1,1,,closed
EDGE-000051,JCT-FDR-0001-001,FUSE-XFMR-000025,FDR-0001,SUB-001,lateral_overhead,1/0 AL,ABC,0.032,167.9,0.6426,0.4379,0.5345,230,12.47,3,1,,closed
EDGE-000052,FUSE-XFMR-000025,XFMR-000025,FDR-0001,SUB-001,lateral_overhead,1/0 AL,ABC,0.18,951.5,0.5677,0.4754,0.5345,230,12.47,3,1,,closed
EDGE-000053,JCT-FDR-0001-001,FUSE-XFMR-000026,FDR-0001,SUB-001,lateral_overhead,#4 CU,AC,0.034,179.0,1.4641,0.5037,1.007,100,12.47,2,1,,closed
EDGE-000054,FUSE-XFMR-000026,XFMR-000026,FDR-0001,SUB-001,lateral_overhead,#4 CU,AC,0.192,1014.3,1.447,0.4659,1.007,100,12.47,2,1,,closed
EDGE-000055,JCT-FDR-0001-001,FUSE-XFMR-000027,FDR-0001,SUB-001,lateral_overhead,#2 ACSR,BC,0.035,182.2,0.8658,0.5147,0.6985,150,12.47,2,1,,closed
EDGE-000056,FUSE-XFMR-000027,XFMR-000027,FDR-0001,SUB-001,lateral_overhead,#2 ACSR,BC,0.196,1032.2,0.9732,0.4954,0.6985,150,12.47,2,1,,closed
EDGE-000057,JCT-FDR-0001-001,FUSE-XFMR-000028,FDR-0001,SUB-001,lateral_overhead,#2 ACSR,C,0.036,191.7,0.8395,0.5107,0.6985,150,12.47,1,1,,closed
EDGE-000058,FUSE-XFMR-000028,XFMR-000028,FDR-0001,SUB-001,lateral_overhead,#2 ACSR,C,0.206,1086.1,0.9121,0.4749,0.6985,150,12.47,1,1,,closed
EDGE-000059,JCT-FDR-0001-001,FUSE-XFMR-000029,FDR-0001,SUB-001,lateral_overhead,#4 CU,AB,0.037,195.6,1.6414,0.4953,1.007,100,12.47,2,1,,closed
EDGE-000060,FUSE-XFMR-000029,XFMR-000029,FDR-0001,SUB-001,lateral_overhead,#4 CU,AB,0.21,1108.5,1.3763,0.462,1.007,100,12.47,2,1,,closed
EDGE-000061,JCT-FDR-0001-001,FUSE-XFMR-000030,FDR-0001,SUB-001,lateral_overhead,4/0 AL,B,0.039,205.9,0.3069,0.4392,0.3655,340,12.47,1,1,,closed
EDGE-000062,FUSE-XFMR-000030,XFMR-000030,FDR-0001,SUB-001,lateral_overhead,4/0 AL,B,0.221,1166.9,0.2685,0.4262,0.3655,340,12.47,1,1,,closed
EDGE-000063,JCT-FDR-0001-001,FUSE-XFMR-000031,FDR-0001,SUB-001,lateral_overhead,4/0 AL,ABC,0.04,209.9,0.2981,0.4297,0.3655,340,12.47,3,1,,closed
EDGE-000064,FUSE-XFMR-000031,XFMR-000031,FDR-0001,SUB-001,lateral_overhead,4/0 AL,ABC,0.225,1189.3,0.3243,0.4184,0.3655,340,12.47,3,1,,closed
EDGE-000065,JCT-FDR-0001-001,FUSE-XFMR-000032,FDR-0001,SUB-001,lateral_overhead,1/0 AL,AC,0.041,218.6,0.628,0.4721,0.5345,230,12.47,2,1,,closed
EDGE-000066,FUSE-XFMR-000032,XFMR-000032,FDR-0001,SUB-001,lateral_overhead,1/0 AL,AC,0.235,1238.7,0.5495,0.5017,0.5345,230,12.47,2,1,,closed
EDGE-000067,JCT-FDR-0001-001,FUSE-XFMR-000033,FDR-0001,SUB-001,lateral_overhead,#4 CU,C,0.043,227.3,1.4124,0.4879,1.007,100,12.47,1,1,,closed
EDGE-000068,FUSE-XFMR-000033,XFMR-000033,FDR-0001,SUB-001,lateral_overhead,#4 CU,C,0.244,1288.1,1.3762,0.5314,1.007,100,12.47,1,1,,closed
EDGE-000069,JCT-FDR-0001-001,FUSE-XFMR-000034,FDR-0001,SUB-001,lateral_overhead,#2 ACSR,A,0.044,232.8,0.8561,0.4805,0.6985,150,12.47,1,1,,closed
EDGE-000070,FUSE-XFMR-000034,XFMR-000034,FDR-0001,SUB-001,lateral_overhead,#2 ACSR,A,0.25,1319.5,0.8355,0.5012,0.6985,150,12.47,1,1,,closed
EDGE-000071,JCT-FDR-0001-001,FUSE-XFMR-000035,FDR-0001,SUB-001,lateral_overhead,#4 CU,B,0.046,241.6,1.493,0.5362,1.007,100,12.47,1,1,,closed
EDGE-000072,FUSE-XFMR-000035,XFMR-000035,FDR-0001,SUB-001,lateral_overhead,#4 CU,B,0.259,1368.8,1.3923,0.5536,1.007,100,12.47,1,1,,closed
EDGE-000073,JCT-FDR-0001-001,FUSE-XFMR-000036,FDR-0001,SUB-001,lateral_overhead,#4 CU,ABC,0.046,245.5,1.3568,0.5092,1.007,100,12.47,3,1,,closed
EDGE-000074,FUSE-XFMR-000036,XFMR-000036,FDR-0001,SUB-001,lateral_overhead,#4 CU,ABC,0.264,1391.3,1.3904,0.5244,1.007,100,12.47,3,1,,closed
EDGE-000075,JCT-FDR-0001-001,FUSE-XFMR-000037,FDR-0001,SUB-001,lateral_overhead,#2 ACSR,B,0.048,252.6,0.8654,0.5487,0.6985,150,12.47,1,1,,closed
EDGE-000076,FUSE-XFMR-000037,XFMR-000037,FDR-0001,SUB-001,lateral_overhead,#2 ACSR,B,0.271,1431.7,0.9588,0.4566,0.6985,150,12.47,1,1,,closed
EDGE-000077,JCT-FDR-0001-001,FUSE-XFMR-000038,FDR-0001,SUB-001,lateral_underground,1/0 AL,ABC,0.05,262.2,0.5459,0.4808,0.5345,230,12.47,3,0,,closed
EDGE-000078,FUSE-XFMR-000038,XFMR-000038,FDR-0001,SUB-001,lateral_underground,1/0 AL,ABC,0.281,1485.5,0.6051,0.4418,0.5345,230,12.47,3,0,,closed
EDGE-000079,JCT-FDR-0001-001,FUSE-XFMR-000039,FDR-0001,SUB-001,lateral_underground,4/0 AL,AB,0.051,269.3,0.2717,0.3961,0.3655,340,12.47,2,0,,closed
EDGE-000080,FUSE-XFMR-000039,XFMR-000039,FDR-0001,SUB-001,lateral_underground,4/0 AL,AB,0.289,1525.9,0.2857,0.4064,0.3655,340,12.47,2,0,,closed
EDGE-000081,JCT-FDR-0001-001,FUSE-XFMR-000040,FDR-0001,SUB-001,lateral_overhead,#2 ACSR,B,0.053,278.0,0.8402,0.4779,0.6985,150,12.47,1,1,,closed
EDGE-000082,FUSE-XFMR-000040,XFMR-000040,FDR-0001,SUB-001,lateral_overhead,#2 ACSR,B,0.298,1575.3,0.8234,0.5201,0.6985,150,12.47,1,1,,closed
EDGE-000083,JCT-FDR-0001-001,FUSE-XFMR-000041,FDR-0001,SUB-001,lateral_overhead,#2 ACSR,B,0.054,283.5,0.8942,0.4606,0.6985,150,12.47,1,1,,closed
EDGE-000084,FUSE-XFMR-000041,XFMR-000041,FDR-0001,SUB-001,lateral_overhead,#2 ACSR,B,0.304,1606.7,0.9025,0.4659,0.6985,150,12.47,1,1,,closed
EDGE-000085,JCT-FDR-0001-001,FUSE-XFMR-000042,FDR-0001,SUB-001,lateral_overhead,#2 ACSR,B,0.055,292.2,0.8356,0.5394,0.6985,150,12.47,1,1,,closed
EDGE-000086,FUSE-XFMR-000042,XFMR-000042,FDR-0001,SUB-001,lateral_overhead,#2 ACSR,B,0.314,1656.1,0.8273,0.5434,0.6985,150,12.47,1,1,,closed
EDGE-000087,JCT-FDR-0001-001,FUSE-XFMR-000043,FDR-0001,SUB-001,lateral_overhead,#2 ACSR,AC,0.056,295.4,0.8947,0.5076,0.6985,150,12.47,2,1,,closed
EDGE-000088,FUSE-XFMR-000043,XFMR-000043,FDR-0001,SUB-001,lateral_overhead,#2 ACSR,AC,0.317,1674.0,0.9636,0.507,0.6985,150,12.47,2,1,,closed
EDGE-000089,JCT-FDR-0001-001,FUSE-XFMR-000044,FDR-0001,SUB-001,lateral_overhead,#4 CU,A,0.058,304.1,1.3788,0.4799,1.007,100,12.47,1,1,,closed
EDGE-000090,FUSE-XFMR-000044,XFMR-000044,FDR-0001,SUB-001,lateral_overhead,#4 CU,A,0.326,1723.4,1.5136,0.4913,1.007,100,12.47,1,1,,closed
EDGE-000091,JCT-FDR-0001-001,FUSE-XFMR-000045,FDR-0001,SUB-001,lateral_overhead,4/0 AL,AC,0.059,312.0,0.2813,0.4372,0.3655,340,12.47,2,1,,closed
EDGE-000092,FUSE-XFMR-000045,XFMR-000045,FDR-0001,SUB-001,lateral_overhead,4/0 AL,AC,0.335,1768.3,0.309,0.4319,0.3655,340,12.47,2,1,,closed
EDGE-000093,JCT-FDR-0001-001,JCT-FDR-0001-002,FDR-0001,SUB-001,primary_overhead,795 ACSR,ABC,0.33,1742.4,0.1426,0.4145,0.2424,700,12.47,3,1,,closed
EDGE-000094,JCT-FDR-0001-002,FUSE-XFMR-000046,FDR-0001,SUB-001,lateral_underground,#2 ACSR,ABC,0.002,7.9,0.9299,0.461,0.6985,150,12.47,3,0,,closed
EDGE-000095,FUSE-XFMR-000046,XFMR-000046,FDR-0001,SUB-001,lateral_underground,#2 ACSR,ABC,0.009,44.9,0.977,0.4866,0.6985,150,12.47,3,0,,closed
EDGE-000096,JCT-FDR-0001-002,FUSE-XFMR-000047,FDR-0001,SUB-001,lateral_overhead,#4 CU,ABC,0.002,10.3,1.4846,0.5029,1.007,100,12.47,3,1,,closed
EDGE-000097,FUSE-XFMR-000047,XFMR-000047,FDR-0001,SUB-001,lateral_overhead,#4 CU,ABC,0.011,58.3,1.6015,0.522,1.007,100,12.47,3,1,,closed
EDGE-000098,JCT-FDR-0001-002,FUSE-XFMR-000048,FDR-0001,SUB-001,lateral_overhead,1/0 AL,B,0.004,19.8,0.6182,0.4699,0.5345,230,12.47,1,1,,closed
EDGE-000099,FUSE-XFMR-000048,XFMR-000048,FDR-0001,SUB-001,lateral_overhead,1/0 AL,B,0.021,112.2,0.6078,0.4457,0.5345,230,12.47,1,1,,closed
EDGE-000100,JCT-FDR-0001-002,FUSE-XFMR-000049,FDR-0001,SUB-001,lateral_overhead,1/0 AL,B,0.004,23.0,0.5424,0.5214,0.5345,230,12.47,1,1,,closed
EDGE-000101,FUSE-XFMR-000049,XFMR-000049,FDR-0001,SUB-001,lateral_overhead,1/0 AL,B,0.025,130.2,0.5945,0.45,0.5345,230,12.47,1,1,,closed
EDGE-000102,JCT-FDR-0001-002,FUSE-XFMR-000050,FDR-0001,SUB-001,lateral_overhead,#2 ACSR,ABC,0.006,34.1,0.8825,0.5402,0.6985,150,12.47,3,1,,closed
EDGE-000103,FUSE-XFMR-000050,XFMR-000050,FDR-0001,SUB-001,lateral_overhead,#2 ACSR,ABC,0.037,193.0,0.898,0.5416,0.6985,150,12.47,3,1,,closed
EDGE-000104,JCT-FDR-0001-002,FUSE-XFMR-000051,FDR-0001,SUB-001,lateral_overhead,4/0 AL,BC,0.007,39.6,0.309,0.4398,0.3655,340,12.47,2,1,,closed
EDGE-000105,FUSE-XFMR-000051,XFMR-000051,FDR-0001,SUB-001,lateral_overhead,4/0 AL,BC,0.043,224.4,0.2914,0.4711,0.3655,340,12.47,2,1,,closed
EDGE-000106,JCT-FDR-0001-002,FUSE-XFMR-000052,FDR-0001,SUB-001,lateral_underground,#4 CU,BC,0.009,45.9,1.3671,0.557,1.007,100,12.47,2,0,,closed
EDGE-000107,FUSE-XFMR-000052,XFMR-000052,FDR-0001,SUB-001,lateral_underground,#4 CU,BC,0.049,260.3,1.5489,0.4721,1.007,100,12.47,2,0,,closed
EDGE-000108,JCT-FDR-0001-002,FUSE-XFMR-000053,FDR-0001,SUB-001,lateral_overhead,#2 ACSR,AC,0.009,49.1,0.8337,0.5385,0.6985,150,12.47,2,1,,closed
EDGE-000109,FUSE-XFMR-000053,XFMR-000053,FDR-0001,SUB-001,lateral_overhead,#2 ACSR,AC,0.053,278.3,0.9493,0.4744,0.6985,150,12.47,2,1,,closed
EDGE-000110,JCT-FDR-0001-002,FUSE-XFMR-000054,FDR-0001,SUB-001,lateral_overhead,4/0 AL,AC,0.011,59.4,0.3048,0.4016,0.3655,340,12.47,2,1,,closed
EDGE-000111,FUSE-XFMR-000054,XFMR-000054,FDR-0001,SUB-001,lateral_overhead,4/0 AL,AC,0.064,336.6,0.2842,0.4517,0.3655,340,12.47,2,1,,closed
EDGE-000112,JCT-FDR-0001-002,FUSE-XFMR-000055,FDR-0001,SUB-001,lateral_overhead,1/0 AL,BC,0.013,68.1,0.5413,0.4971,0.5345,230,12.47,2,1,,closed
EDGE-000113,FUSE-XFMR-000055,XFMR-000055,FDR-0001,SUB-001,lateral_overhead,1/0 AL,BC,0.073,386.0,0.5783,0.5126,0.5345,230,12.47,2,1,,closed
EDGE-000114,JCT-FDR-0001-002,FUSE-XFMR-000056,FDR-0001,SUB-001,lateral_overhead,#2 ACSR,ABC,0.014,72.9,0.8524,0.5372,0.6985,150,12.47,3,1,,closed
EDGE-000115,FUSE-XFMR-000056,XFMR-000056,FDR-0001,SUB-001,lateral_overhead,#2 ACSR,ABC,0.078,412.9,0.949,0.5327,0.6985,150,12.47,3,1,,closed
EDGE-000116,JCT-FDR-0001-002,FUSE-XFMR-000057,FDR-0001,SUB-001,lateral_overhead,1/0 AL,AB,0.015,79.2,0.6105,0.4653,0.5345,230,12.47,2,1,,closed
EDGE-000117,FUSE-XFMR-000057,XFMR-000057,FDR-0001,SUB-001,lateral_overhead,1/0 AL,AB,0.085,448.8,0.6477,0.5123,0.5345,230,12.47,2,1,,closed
EDGE-000118,JCT-FDR-0001-002,FUSE-XFMR-000058,FDR-0001,SUB-001,lateral_overhead,1/0 AL,AB,0.017,87.1,0.5746,0.4333,0.5345,230,12.47,2,1,,closed
EDGE-000119,FUSE-XFMR-000058,XFMR-000058,FDR-0001,SUB-001,lateral_overhead,1/0 AL,AB,0.093,493.7,0.5754,0.4571,0.5345,230,12.47,2,1,,closed
EDGE-000120,JCT-FDR-0001-002,FUSE-XFMR-000059,FDR-0001,SUB-001,lateral_overhead,#4 CU,A,0.018,95.0,1.38,0.4641,1.007,100,12.47,1,1,,closed
EDGE-000121,FUSE-XFMR-000059,XFMR-000059,FDR-0001,SUB-001,lateral_overhead,#4 CU,A,0.102,538.6,1.4999,0.5493,1.007,100,12.47,1,1,,closed
EDGE-000122,JCT-FDR-0001-002,FUSE-XFMR-000060,FDR-0001,SUB-001,lateral_overhead,#2 ACSR,A,0.019,99.0,0.8401,0.5381,0.6985,150,12.47,1,1,,closed
EDGE-000123,FUSE-XFMR-000060,XFMR-000060,FDR-0001,SUB-001,lateral_overhead,#2 ACSR,A,0.106,561.0,0.8592,0.4983,0.6985,150,12.47,1,1,,closed
EDGE-000124,JCT-FDR-0001-002,FUSE-XFMR-000061,FDR-0001,SUB-001,lateral_overhead,4/0 AL,C,0.02,105.3,0.32,0.4121,0.3655,340,12.47,1,1,,closed
EDGE-000125,FUSE-XFMR-000061,XFMR-000061,FDR-0001,SUB-001,lateral_overhead,4/0 AL,C,0.113,596.9,0.3111,0.4261,0.3655,340,12.47,1,1,,closed
EDGE-000126,JCT-FDR-0001-002,FUSE-XFMR-000062,FDR-0001,SUB-001,lateral_overhead,#4 CU,ABC,0.022,116.4,1.578,0.5059,1.007,100,12.47,3,1,,closed
EDGE-000127,FUSE-XFMR-000062,XFMR-000062,FDR-0001,SUB-001,lateral_overhead,#4 CU,ABC,0.125,659.7,1.3663,0.4954,1.007,100,12.47,3,1,,closed
EDGE-000128,JCT-FDR-0001-002,FUSE-XFMR-000063,FDR-0001,SUB-001,lateral_underground,4/0 AL,ABC,0.023,120.4,0.2728,0.4304,0.3655,340,12.47,3,0,,closed
EDGE-000129,FUSE-XFMR-000063,XFMR-000063,FDR-0001,SUB-001,lateral_underground,4/0 AL,ABC,0.129,682.2,0.2724,0.4253,0.3655,340,12.47,3,0,,closed
EDGE-000130,JCT-FDR-0001-002,FUSE-XFMR-000064,FDR-0001,SUB-001,lateral_overhead,1/0 AL,AC,0.025,129.9,0.5947,0.4411,0.5345,230,12.47,2,1,,closed
EDGE-000131,FUSE-XFMR-000064,XFMR-000064,FDR-0001,SUB-001,lateral_overhead,1/0 AL,AC,0.139,736.0,0.5387,0.5202,0.5345,230,12.47,2,1,,closed
EDGE-000132,JCT-FDR-0001-002,FUSE-XFMR-000065,FDR-0001,SUB-001,lateral_overhead,1/0 AL,B,0.025,133.8,0.5414,0.4611,0.5345,230,12.47,1,1,,closed
EDGE-000133,FUSE-XFMR-000065,XFMR-000065,FDR-0001,SUB-001,lateral_overhead,1/0 AL,B,0.144,758.5,0.5777,0.4312,0.5345,230,12.47,1,1,,closed
EDGE-000134,JCT-FDR-0001-002,FUSE-XFMR-000066,FDR-0001,SUB-001,lateral_overhead,#2 ACSR,B,0.027,143.4,0.9565,0.5256,0.6985,150,12.47,1,1,,closed
EDGE-000135,FUSE-XFMR-000066,XFMR-000066,FDR-0001,SUB-001,lateral_overhead,#2 ACSR,B,0.154,812.3,0.8729,0.4606,0.6985,150,12.47,1,1,,closed
EDGE-000136,JCT-FDR-0001-002,FUSE-XFMR-000067,FDR-0001,SUB-001,lateral_overhead,#4 CU,B,0.028,147.3,1.4143,0.5547,1.007,100,12.47,1,1,,closed
EDGE-000137,FUSE-XFMR-000067,XFMR-000067,FDR-0001,SUB-001,lateral_overhead,#4 CU,B,0.158,834.8,1.4245,0.5353,1.007,100,12.47,1,1,,closed
EDGE-000138,JCT-FDR-0001-002,FUSE-XFMR-000068,FDR-0001,SUB-001,lateral_underground,4/0 AL,BC,0.03,157.6,0.3227,0.448,0.3655,340,12.47,2,0,,closed
EDGE-000139,FUSE-XFMR-000068,XFMR-000068,FDR-0001,SUB-001,lateral_underground,4/0 AL,BC,0.169,893.1,0.2984,0.4333,0.3655,340,12.47,2,0,,closed
EDGE-000140,JCT-FDR-0001-002,FUSE-XFMR-000069,FDR-0001,SUB-001,lateral_overhead,#4 CU,A,0.031,163.9,1.6199,0.5459,1.007,100,12.47,1,1,,closed
EDGE-000141,FUSE-XFMR-000069,XFMR-000069,FDR-0001,SUB-001,lateral_overhead,#4 CU,A,0.176,929.0,1.6105,0.484,1.007,100,12.47,1,1,,closed
EDGE-000142,JCT-FDR-0001-002,FUSE-XFMR-000070,FDR-0001,SUB-001,lateral_overhead,#4 CU,B,0.032,170.3,1.4899,0.5496,1.007,100,12.47,1,1,,closed
EDGE-000143,FUSE-XFMR-000070,XFMR-000070,FDR-0001,SUB-001,lateral_overhead,#4 CU,B,0.183,964.9,1.387,0.5483,1.007,100,12.47,1,1,,closed
EDGE-000144,JCT-FDR-0001-002,FUSE-XFMR-000071,FDR-0001,SUB-001,lateral_overhead,4/0 AL,ABC,0.034,179.0,0.3045,0.4721,0.3655,340,12.47,3,1,,closed
EDGE-000145,FUSE-XFMR-000071,XFMR-000071,FDR-0001,SUB-001,lateral_overhead,4/0 AL,ABC,0.192,1014.3,0.3182,0.477,0.3655,340,12.47,3,1,,closed
EDGE-000146,JCT-FDR-0001-002,FUSE-XFMR-000072,FDR-0001,SUB-001,lateral_overhead,#2 ACSR,B,0.035,184.5,0.8307,0.4929,0.6985,150,12.47,1,1,,closed
EDGE-000147,FUSE-XFMR-000072,XFMR-000072,FDR-0001,SUB-001,lateral_overhead,#2 ACSR,B,0.198,1045.7,0.8828,0.4756,0.6985,150,12.47,1,1,,closed
EDGE-000148,JCT-FDR-0001-002,FUSE-XFMR-000073,FDR-0001,SUB-001,lateral_overhead,1/0 AL,AB,0.036,191.7,0.5518,0.5215,0.5345,230,12.47,2,1,,closed
EDGE-000149,FUSE-XFMR-000073,XFMR-000073,FDR-0001,SUB-001,lateral_overhead,1/0 AL,AB,0.206,1086.1,0.5423,0.4887,0.5345,230,12.47,2,1,,closed
EDGE-000150,JCT-FDR-0001-002,FUSE-XFMR-000074,FDR-0001,SUB-001,lateral_overhead,#4 CU,AB,0.038,201.2,1.5365,0.4928,1.007,100,12.47,2,1,,closed
EDGE-000151,FUSE-XFMR-000074,XFMR-000074,FDR-0001,SUB-001,lateral_overhead,#4 CU,AB,0.216,1140.0,1.5954,0.5566,1.007,100,12.47,2,1,,closed
EDGE-000152,JCT-FDR-0001-002,FUSE-XFMR-000075,FDR-0001,SUB-001,lateral_overhead,1/0 AL,ABC,0.039,205.9,0.6324,0.4563,0.5345,230,12.47,3,1,,closed
EDGE-000153,FUSE-XFMR-000075,XFMR-000075,FDR-0001,SUB-001,lateral_overhead,1/0 AL,ABC,0.221,1166.9,0.5482,0.5111,0.5345,230,12.47,3,1,,closed
EDGE-000154,JCT-FDR-0001-002,FUSE-XFMR-000076,FDR-0001,SUB-001,lateral_overhead,#2 ACSR,BC,0.04,210.7,0.9812,0.5475,0.6985,150,12.47,2,1,,closed
EDGE-000155,FUSE-XFMR-000076,XFMR-000076,FDR-0001,SUB-001,lateral_overhead,#2 ACSR,BC,0.226,1193.8,0.9675,0.49,0.6985,150,12.47,2,1,,closed
EDGE-000156,JCT-FDR-0001-002,FUSE-XFMR-000077,FDR-0001,SUB-001,lateral_underground,#2 ACSR,C,0.042,221.0,0.8329,0.4945,0.6985,150,12.47,1,0,,closed
EDGE-000157,FUSE-XFMR-000077,XFMR-000077,FDR-0001,SUB-001,lateral_underground,#2 ACSR,C,0.237,1252.2,0.9378,0.5334,0.6985,150,12.47,1,0,,closed
EDGE-000158,JCT-FDR-0001-002,FUSE-XFMR-000078,FDR-0001,SUB-001,lateral_underground,#2 ACSR,C,0.043,226.5,0.9091,0.4587,0.6985,150,12.47,1,0,,closed
EDGE-000159,FUSE-XFMR-000078,XFMR-000078,FDR-0001,SUB-001,lateral_underground,#2 ACSR,C,0.243,1283.6,0.9088,0.4725,0.6985,150,12.47,1,0,,closed
EDGE-000160,JCT-FDR-0001-002,FUSE-XFMR-000079,FDR-0001,SUB-001,lateral_overhead,#4 CU,A,0.045,236.0,1.6037,0.4991,1.007,100,12.47,1,1,,closed
EDGE-000161,FUSE-XFMR-000079,XFMR-000079,FDR-0001,SUB-001,lateral_overhead,#4 CU,A,0.253,1337.4,1.3599,0.5336,1.007,100,12.47,1,1,,closed
EDGE-000162,JCT-FDR-0001-002,FUSE-XFMR-000080,FDR-0001,SUB-001,lateral_underground,#2 ACSR,BC,0.046,240.8,0.8396,0.5315,0.6985,150,12.47,2,0,,closed
EDGE-000163,FUSE-XFMR-000080,XFMR-000080,FDR-0001,SUB-001,lateral_underground,#2 ACSR,BC,0.258,1364.4,0.8598,0.4871,0.6985,150,12.47,2,0,,closed
EDGE-000164,JCT-FDR-0001-002,FUSE-XFMR-000081,FDR-0001,SUB-001,lateral_overhead,#4 CU,C,0.047,250.3,1.5445,0.5416,1.007,100,12.47,1,1,,closed
EDGE-000165,FUSE-XFMR-000081,XFMR-000081,FDR-0001,SUB-001,lateral_overhead,#4 CU,C,0.269,1418.2,1.5722,0.4888,1.007,100,12.47,1,1,,closed
EDGE-000166,JCT-FDR-0001-002,FUSE-XFMR-000082,FDR-0001,SUB-001,lateral_overhead,#4 CU,A,0.049,257.4,1.5156,0.4652,1.007,100,12.47,1,1,,closed
EDGE-000167,FUSE-XFMR-000082,XFMR-000082,FDR-0001,SUB-001,lateral_overhead,#4 CU,A,0.276,1458.6,1.5692,0.4766,1.007,100,12.47,1,1,,closed
EDGE-000168,JCT-FDR-0001-002,FUSE-XFMR-000083,FDR-0001,SUB-001,lateral_overhead,#4 CU,BC,0.049,259.8,1.38,0.5573,1.007,100,12.47,2,1,,closed
EDGE-000169,FUSE-XFMR-000083,XFMR-000083,FDR-0001,SUB-001,lateral_overhead,#4 CU,BC,0.279,1472.1,1.5974,0.4868,1.007,100,12.47,2,1,,closed
EDGE-000170,JCT-FDR-0001-002,FUSE-XFMR-000084,FDR-0001,SUB-001,lateral_overhead,4/0 AL,ABC,0.051,267.7,0.3109,0.4682,0.3655,340,12.47,3,1,,closed
EDGE-000171,FUSE-XFMR-000084,XFMR-000084,FDR-0001,SUB-001,lateral_overhead,4/0 AL,ABC,0.287,1516.9,0.2943,0.4357,0.3655,340,12.47,3,1,,closed
EDGE-000172,JCT-FDR-0001-002,FUSE-XFMR-000085,FDR-0001,SUB-001,lateral_overhead,4/0 AL,A,0.053,278.0,0.2897,0.4525,0.3655,340,12.47,1,1,,closed
EDGE-000173,FUSE-XFMR-000085,XFMR-000085,FDR-0001,SUB-001,lateral_overhead,4/0 AL,A,0.298,1575.3,0.3101,0.4683,0.3655,340,12.47,1,1,,closed
EDGE-000174,JCT-FDR-0001-002,FUSE-XFMR-000086,FDR-0001,SUB-001,lateral_underground,#2 ACSR,BC,0.054,285.9,0.817,0.49,0.6985,150,12.47,2,0,,closed
EDGE-000175,FUSE-XFMR-000086,XFMR-000086,FDR-0001,SUB-001,lateral_underground,#2 ACSR,BC,0.307,1620.2,0.9227,0.5345,0.6985,150,12.47,2,0,,closed
EDGE-000176,JCT-FDR-0001-002,FUSE-XFMR-000087,FDR-0001,SUB-001,lateral_overhead,#2 ACSR,BC,0.055,290.7,0.8221,0.4913,0.6985,150,12.47,2,1,,closed
EDGE-000177,FUSE-XFMR-000087,XFMR-000087,FDR-0001,SUB-001,lateral_overhead,#2 ACSR,BC,0.312,1647.1,0.952,0.5442,0.6985,150,12.47,2,1,,closed
EDGE-000178,JCT-FDR-0001-002,FUSE-XFMR-000088,FDR-0001,SUB-001,lateral_overhead,1/0 AL,C,0.056,297.8,0.5794,0.4548,0.5345,230,12.47,1,1,,closed
EDGE-000179,FUSE-XFMR-000088,XFMR-000088,FDR-0001,SUB-001,lateral_overhead,1/0 AL,C,0.32,1687.5,0.595,0.5095,0.5345,230,12.47,1,1,,closed
EDGE-000180,JCT-FDR-0001-002,FUSE-XFMR-000089,FDR-0001,SUB-001,lateral_overhead,1/0 AL,AC,0.058,305.7,0.5988,0.4979,0.5345,230,12.47,2,1,,closed
EDGE-000181,FUSE-XFMR-000089,XFMR-000089,FDR-0001,SUB-001,lateral_overhead,1/0 AL,AC,0.328,1732.4,0.6208,0.5169,0.5345,230,12.47,2,1,,closed
EDGE-000182,JCT-FDR-0001-002,FUSE-XFMR-000090,FDR-0001,SUB-001,lateral_underground,4/0 AL,ABC,0.059,313.6,0.3235,0.4499,0.3655,340,12.47,3,0,,closed
EDGE-000183,FUSE-XFMR-000090,XFMR-000090,FDR-0001,SUB-001,lateral_underground,4/0 AL,ABC,0.337,1777.2,0.3073,0.4355,0.3655,340,12.47,3,0,,closed
EDGE-000184,JCT-FDR-0001-002,JCT-FDR-0001-003,FDR-0001,SUB-001,primary_overhead,795 ACSR,ABC,0.33,1742.4,0.1295,0.3566,0.267,700,12.47,3,1,,closed
EDGE-000185,JCT-FDR-0001-003,FUSE-XFMR-000091,FDR-0001,SUB-001,lateral_overhead,#2 ACSR,AC,0.001,3.2,0.909,0.4889,0.6985,150,12.47,2,1,,closed
EDGE-000186,FUSE-XFMR-000091,XFMR-000091,FDR-0001,SUB-001,lateral_overhead,#2 ACSR,AC,0.003,18.0,0.8124,0.5115,0.6985,150,12.47,2,1,,closed
EDGE-000187,JCT-FDR-0001-003,FUSE-XFMR-000092,FDR-0001,SUB-001,lateral_underground,1/0 AL,ABC,0.002,10.3,0.5514,0.4324,0.5345,230,12.47,3,0,,closed
EDGE-000188,FUSE-XFMR-000092,XFMR-000092,FDR-0001,SUB-001,lateral_underground,1/0 AL,ABC,0.011,58.3,0.554,0.4444,0.5345,230,12.47,3,0,,closed
EDGE-000189,JCT-FDR-0001-003,FUSE-XFMR-000093,FDR-0001,SUB-001,lateral_overhead,4/0 AL,BC,0.003,16.6,0.284,0.469,0.3655,340,12.47,2,1,,closed
EDGE-000190,FUSE-XFMR-000093,XFMR-000093,FDR-0001,SUB-001,lateral_overhead,4/0 AL,BC,0.018,94.2,0.289,0.4712,0.3655,340,12.47,2,1,,closed
EDGE-000191,JCT-FDR-0001-003,FUSE-XFMR-000094,FDR-0001,SUB-001,lateral_underground,1/0 AL,B,0.004,21.4,0.5588,0.4946,0.5345,230,12.47,1,0,,closed
EDGE-000192,FUSE-XFMR-000094,XFMR-000094,FDR-0001,SUB-001,lateral_underground,1/0 AL,B,0.023,121.2,0.546,0.4962,0.5345,230,12.47,1,0,,closed
EDGE-000193,JCT-FDR-0001-003,FUSE-XFMR-000095,FDR-0001,SUB-001,lateral_overhead,1/0 AL,AB,0.006,30.9,0.5652,0.4542,0.5345,230,12.47,2,1,,closed
EDGE-000194,FUSE-XFMR-000095,XFMR-000095,FDR-0001,SUB-001,lateral_overhead,1/0 AL,AB,0.033,175.0,0.5639,0.5244,0.5345,230,12.47,2,1,,closed
EDGE-000195,JCT-FDR-0001-003,FUSE-XFMR-000096,FDR-0001,SUB-001,lateral_overhead,#4 CU,B,0.007,36.4,1.5791,0.4733,1.007,100,12.47,1,1,,closed
EDGE-000196,FUSE-XFMR-000096,XFMR-000096,FDR-0001,SUB-001,lateral_overhead,#4 CU,B,0.039,206.4,1.4712,0.483,1.007,100,12.47,1,1,,closed
EDGE-000197,JCT-FDR-0001-003,FUSE-XFMR-000097,FDR-0001,SUB-001,lateral_underground,4/0 AL,ABC,0.008,44.4,0.2719,0.4734,0.3655,340,12.47,3,0,,closed
EDGE-000198,FUSE-XFMR-000097,XFMR-000097,FDR-0001,SUB-001,lateral_underground,4/0 AL,ABC,0.048,251.3,0.2929,0.4058,0.3655,340,12.47,3,0,,closed
EDGE-000199,JCT-FDR-0001-003,FUSE-XFMR-000098,FDR-0001,SUB-001,lateral_underground,#4 CU,B,0.009,47.5,1.4443,0.5124,1.007,100,12.47,1,0,,closed
EDGE-000200,FUSE-XFMR-000098,XFMR-000098,FDR-0001,SUB-001,lateral_underground,#4 CU,B,0.051,269.3,1.647,0.5344,1.007,100,12.47,1,0,,closed
EDGE-000201,JCT-FDR-0001-003,FUSE-XFMR-000099,FDR-0001,SUB-001,lateral_underground,1/0 AL,ABC,0.011,57.8,0.5942,0.5032,0.5345,230,12.47,3,0,,closed
EDGE-000202,FUSE-XFMR-000099,XFMR-000099,FDR-0001,SUB-001,lateral_underground,1/0 AL,ABC,0.062,327.6,0.5901,0.511,0.5345,230,12.47,3,0,,closed
EDGE-000203,JCT-FDR-0001-003,FUSE-XFMR-000100,FDR-0001,SUB-001,lateral_overhead,#4 CU,A,0.012,64.9,1.6345,0.5507,1.007,100,12.47,1,1,,closed
EDGE-000204,FUSE-XFMR-000100,XFMR-000100,FDR-0001,SUB-001,lateral_overhead,#4 CU,A,0.07,368.0,1.5111,0.484,1.007,100,12.47,1,1,,closed
EDGE-000205,JCT-FDR-0001-003,FUSE-XFMR-000101,FDR-0001,SUB-001,lateral_overhead,#4 CU,C,0.013,71.3,1.574,0.5603,1.007,100,12.47,1,1,,closed
EDGE-000206,FUSE-XFMR-000101,XFMR-000101,FDR-0001,SUB-001,lateral_overhead,#4 CU,C,0.076,403.9,1.6257,0.5334,1.007,100,12.47,1,1,,closed
EDGE-000207,JCT-FDR-0001-003,FUSE-XFMR-000102,FDR-0001,SUB-001,lateral_overhead,4/0 AL,C,0.015,80.8,0.2784,0.4164,0.3655,340,12.47,1,1,,closed
EDGE-000208,FUSE-XFMR-000102,XFMR-000102,FDR-0001,SUB-001,lateral_overhead,4/0 AL,C,0.087,457.8,0.3252,0.3921,0.3655,340,12.47,1,1,,closed
EDGE-000209,JCT-FDR-0001-003,FUSE-XFMR-000103,FDR-0001,SUB-001,lateral_overhead,#2 ACSR,AB,0.016,83.2,0.8155,0.5078,0.6985,150,12.47,2,1,,closed
EDGE-000210,FUSE-XFMR-000103,XFMR-000103,FDR-0001,SUB-001,lateral_overhead,#2 ACSR,AB,0.089,471.2,0.816,0.5074,0.6985,150,12.47,2,1,,closed
EDGE-000211,JCT-FDR-0001-003,FUSE-XFMR-000104,FDR-0001,SUB-001,lateral_overhead,1/0 AL,ABC,0.017,90.3,0.5422,0.4871,0.5345,230,12.47,3,1,,closed
EDGE-000212,FUSE-XFMR-000104,XFMR-000104,FDR-0001,SUB-001,lateral_overhead,1/0 AL,ABC,0.097,511.6,0.5992,0.4358,0.5345,230,12.47,3,1,,closed
EDGE-000213,JCT-FDR-0001-003,FUSE-XFMR-000105,FDR-0001,SUB-001,lateral_overhead,#2 ACSR,A,0.019,100.6,0.9772,0.5301,0.6985,150,12.47,1,1,,closed
EDGE-000214,FUSE-XFMR-000105,XFMR-000105,FDR-0001,SUB-001,lateral_overhead,#2 ACSR,A,0.108,570.0,0.9818,0.4836,0.6985,150,12.47,1,1,,closed
EDGE-000215,JCT-FDR-0001-003,FUSE-XFMR-000106,FDR-0001,SUB-001,lateral_overhead,#4 CU,C,0.02,106.1,1.5593,0.5335,1.007,100,12.47,1,1,,closed
EDGE-000216,FUSE-XFMR-000106,XFMR-000106,FDR-0001,SUB-001,lateral_overhead,#4 CU,C,0.114,601.4,1.6155,0.4922,1.007,100,12.47,1,1,,closed
EDGE-000217,JCT-FDR-0001-003,FUSE-XFMR-000107,FDR-0001,SUB-001,lateral_overhead,4/0 AL,AC,0.021,112.5,0.2984,0.4055,0.3655,340,12.47,2,1,,closed
EDGE-000218,FUSE-XFMR-000107,XFMR-000107,FDR-0001,SUB-001,lateral_overhead,4/0 AL,AC,0.121,637.3,0.28,0.392,0.3655,340,12.47,2,1,,closed
EDGE-000219,JCT-FDR-0001-003,FUSE-XFMR-000108,FDR-0001,SUB-001,lateral_overhead,1/0 AL,ABC,0.023,119.6,0.6278,0.5118,0.5345,230,12.47,3,1,,closed
EDGE-000220,FUSE-XFMR-000108,XFMR-000108,FDR-0001,SUB-001,lateral_overhead,1/0 AL,ABC,0.128,677.7,0.5688,0.4494,0.5345,230,12.47,3,1,,closed
EDGE-000221,JCT-FDR-0001-003,FUSE-XFMR-000109,FDR-0001,SUB-001,lateral_overhead,1/0 AL,ABC,0.024,127.5,0.5396,0.4529,0.5345,230,12.47,3,1,,closed
EDGE-000222,FUSE-XFMR-000109,XFMR-000109,FDR-0001,SUB-001,lateral_overhead,1/0 AL,ABC,0.137,722.6,0.588,0.4763,0.5345,230,12.47,3,1,,closed
EDGE-000223,JCT-FDR-0001-003,FUSE-XFMR-000110,FDR-0001,SUB-001,lateral_overhead,4/0 AL,A,0.025,133.1,0.2957,0.4464,0.3655,340,12.47,1,1,,closed
EDGE-000224,FUSE-XFMR-000110,XFMR-000110,FDR-0001,SUB-001,lateral_overhead,4/0 AL,A,0.143,754.0,0.3209,0.4448,0.3655,340,12.47,1,1,,closed
EDGE-000225,JCT-FDR-0001-003,FUSE-XFMR-000111,FDR-0001,SUB-001,lateral_overhead,4/0 AL,AC,0.027,142.6,0.2689,0.4058,0.3655,340,12.47,2,1,,closed
EDGE-000226,FUSE-XFMR-000111,XFMR-000111,FDR-0001,SUB-001,lateral_overhead,4/0 AL,AC,0.153,807.8,0.2906,0.4747,0.3655,340,12.47,2,1,,closed
EDGE-000227,JCT-FDR-0001-003,FUSE-XFMR-000112,FDR-0001,SUB-001,lateral_underground,4/0 AL,B,0.028,145.7,0.3242,0.4054,0.3655,340,12.47,1,0,,closed
EDGE-000228,FUSE-XFMR-000112,XFMR-000112,FDR-0001,SUB-001,lateral_underground,4/0 AL,B,0.156,825.8,0.279,0.4708,0.3655,340,12.47,1,0,,closed
EDGE-000229,JCT-FDR-0001-003,FUSE-XFMR-000113,FDR-0001,SUB-001,lateral_overhead,4/0 AL,AB,0.03,156.0,0.3054,0.4132,0.3655,340,12.47,2,1,,closed
EDGE-000230,FUSE-XFMR-000113,XFMR-000113,FDR-0001,SUB-001,lateral_overhead,4/0 AL,AB,0.167,884.1,0.2925,0.4286,0.3655,340,12.47,2,1,,closed
EDGE-000231,JCT-FDR-0001-003,FUSE-XFMR-000114,FDR-0001,SUB-001,lateral_overhead,4/0 AL,C,0.031,163.2,0.2952,0.4726,0.3655,340,12.47,1,1,,closed
EDGE-000232,FUSE-XFMR-000114,XFMR-000114,FDR-0001,SUB-001,lateral_overhead,4/0 AL,C,0.175,924.5,0.3156,0.4676,0.3655,340,12.47,1,1,,closed
EDGE-000233,JCT-FDR-0001-003,FUSE-XFMR-000115,FDR-0001,SUB-001,lateral_overhead,#2 ACSR,C,0.032,169.5,0.944,0.5368,0.6985,150,12.47,1,1,,closed
EDGE-000234,FUSE-XFMR-000115,XFMR-000115,FDR-0001,SUB-001,lateral_overhead,#2 ACSR,C,0.182,960.4,0.9377,0.4568,0.6985,150,12.47,1,1,,closed
EDGE-000235,JCT-FDR-0001-003,FUSE-XFMR-000116,FDR-0001,SUB-001,lateral_overhead,1/0 AL,AC,0.033,173.4,0.5929,0.501,0.5345,230,12.47,2,1,,closed
EDGE-000236,FUSE-XFMR-000116,XFMR-000116,FDR-0001,SUB-001,lateral_overhead,1/0 AL,AC,0.186,982.9,0.5397,0.4978,0.5345,230,12.47,2,1,,closed
EDGE-000237,JCT-FDR-0001-003,FUSE-XFMR-000117,FDR-0001,SUB-001,lateral_overhead,4/0 AL,A,0.034,181.4,0.3241,0.3958,0.3655,340,12.47,1,1,,closed
EDGE-000238,FUSE-XFMR-000117,XFMR-000117,FDR-0001,SUB-001,lateral_overhead,4/0 AL,A,0.195,1027.8,0.2926,0.3908,0.3655,340,12.47,1,1,,closed
EDGE-000239,JCT-FDR-0001-003,FUSE-XFMR-000118,FDR-0001,SUB-001,lateral_overhead,4/0 AL,AC,0.036,190.1,0.3172,0.4671,0.3655,340,12.47,2,1,,closed
EDGE-000240,FUSE-XFMR-000118,XFMR-000118,FDR-0001,SUB-001,lateral_overhead,4/0 AL,AC,0.204,1077.1,0.2694,0.4071,0.3655,340,12.47,2,1,,closed
EDGE-000241,JCT-FDR-0001-003,FUSE-XFMR-000119,FDR-0001,SUB-001,lateral_overhead,#4 CU,AB,0.037,194.8,1.3802,0.4787,1.007,100,12.47,2,1,,closed
EDGE-000242,FUSE-XFMR-000119,XFMR-000119,FDR-0001,SUB-001,lateral_overhead,#4 CU,AB,0.209,1104.0,1.355,0.5327,1.007,100,12.47,2,1,,closed
EDGE-000243,JCT-FDR-0001-003,FUSE-XFMR-000120,FDR-0001,SUB-001,lateral_overhead,1/0 AL,ABC,0.039,203.5,0.6295,0.5003,0.5345,230,12.47,3,1,,closed
EDGE-000244,FUSE-XFMR-000120,XFMR-000120,FDR-0001,SUB-001,lateral_overhead,1/0 AL,ABC,0.218,1153.4,0.6329,0.4744,0.5345,230,12.47,3,1,,closed
EDGE-000245,JCT-FDR-0001-003,FUSE-XFMR-000121,FDR-0001,SUB-001,lateral_overhead,#2 ACSR,B,0.04,210.7,0.9663,0.5272,0.6985,150,12.47,1,1,,closed
EDGE-000246,FUSE-XFMR-000121,XFMR-000121,FDR-0001,SUB-001,lateral_overhead,#2 ACSR,B,0.226,1193.8,0.904,0.4582,0.6985,150,12.47,1,1,,closed
EDGE-000247,JCT-FDR-0001-003,FUSE-XFMR-000122,FDR-0001,SUB-001,lateral_overhead,1/0 AL,B,0.041,218.6,0.5443,0.4787,0.5345,230,12.47,1,1,,closed
EDGE-000248,FUSE-XFMR-000122,XFMR-000122,FDR-0001,SUB-001,lateral_overhead,1/0 AL,B,0.235,1238.7,0.6054,0.5042,0.5345,230,12.47,1,1,,closed
EDGE-000249,JCT-FDR-0001-003,FUSE-XFMR-000123,FDR-0001,SUB-001,lateral_overhead,#4 CU,C,0.043,227.3,1.5733,0.4717,1.007,100,12.47,1,1,,closed
EDGE-000250,FUSE-XFMR-000123,XFMR-000123,FDR-0001,SUB-001,lateral_overhead,#4 CU,C,0.244,1288.1,1.595,0.499,1.007,100,12.47,1,1,,closed
EDGE-000251,JCT-FDR-0001-003,FUSE-XFMR-000124,FDR-0001,SUB-001,lateral_overhead,1/0 AL,AB,0.043,229.7,0.5639,0.47,0.5345,230,12.47,2,1,,closed
EDGE-000252,FUSE-XFMR-000124,XFMR-000124,FDR-0001,SUB-001,lateral_overhead,1/0 AL,AB,0.246,1301.5,0.6221,0.4743,0.5345,230,12.47,2,1,,closed
EDGE-000253,JCT-FDR-0001-003,FUSE-XFMR-000125,FDR-0001,SUB-001,lateral_overhead,#4 CU,BC,0.046,240.8,1.4519,0.4638,1.007,100,12.47,2,1,,closed
EDGE-000254,FUSE-XFMR-000125,XFMR-000125,FDR-0001,SUB-001,lateral_overhead,#4 CU,BC,0.258,1364.4,1.4727,0.4965,1.007,100,12.47,2,1,,closed
EDGE-000255,JCT-FDR-0001-003,FUSE-XFMR-000126,FDR-0001,SUB-001,lateral_overhead,1/0 AL,B,0.047,248.7,0.5963,0.4859,0.5345,230,12.47,1,1,,closed
EDGE-000256,FUSE-XFMR-000126,XFMR-000126,FDR-0001,SUB-001,lateral_overhead,1/0 AL,B,0.267,1409.2,0.557,0.4707,0.5345,230,12.47,1,1,,closed
EDGE-000257,JCT-FDR-0001-003,FUSE-XFMR-000127,FDR-0001,SUB-001,lateral_overhead,#4 CU,BC,0.048,251.1,1.5011,0.5501,1.007,100,12.47,2,1,,closed
EDGE-000258,FUSE-XFMR-000127,XFMR-000127,FDR-0001,SUB-001,lateral_overhead,#4 CU,BC,0.269,1422.7,1.3974,0.5102,1.007,100,12.47,2,1,,closed
EDGE-000259,JCT-FDR-0001-003,FUSE-XFMR-000128,FDR-0001,SUB-001,lateral_overhead,4/0 AL,BC,0.049,258.2,0.2887,0.4406,0.3655,340,12.47,2,1,,closed
EDGE-000260,FUSE-XFMR-000128,XFMR-000128,FDR-0001,SUB-001,lateral_overhead,4/0 AL,BC,0.277,1463.1,0.3255,0.454,0.3655,340,12.47,2,1,,closed
EDGE-000261,JCT-FDR-0001-003,FUSE-XFMR-000129,FDR-0001,SUB-001,lateral_underground,1/0 AL,C,0.051,268.5,0.5912,0.4864,0.5345,230,12.47,1,0,,closed
EDGE-000262,FUSE-XFMR-000129,XFMR-000129,FDR-0001,SUB-001,lateral_underground,1/0 AL,C,0.288,1521.4,0.571,0.5,0.5345,230,12.47,1,0,,closed
EDGE-000263,JCT-FDR-0001-003,FUSE-XFMR-000130,FDR-0001,SUB-001,lateral_overhead,#4 CU,AB,0.052,272.4,1.4579,0.4975,1.007,100,12.47,2,1,,closed
EDGE-000264,FUSE-XFMR-000130,XFMR-000130,FDR-0001,SUB-001,lateral_overhead,#4 CU,AB,0.292,1543.9,1.4175,0.4959,1.007,100,12.47,2,1,,closed
EDGE-000265,JCT-FDR-0001-003,FUSE-XFMR-000131,FDR-0001,SUB-001,lateral_overhead,#2 ACSR,C,0.053,279.6,0.8387,0.5053,0.6985,150,12.47,1,1,,closed
EDGE-000266,FUSE-XFMR-000131,XFMR-000131,FDR-0001,SUB-001,lateral_overhead,#2 ACSR,C,0.3,1584.3,0.9197,0.4656,0.6985,150,12.47,1,1,,closed
EDGE-000267,JCT-FDR-0001-003,FUSE-XFMR-000132,FDR-0001,SUB-001,lateral_overhead,#2 ACSR,AB,0.055,289.1,0.8318,0.5431,0.6985,150,12.47,2,1,,closed
EDGE-000268,FUSE-XFMR-000132,XFMR-000132,FDR-0001,SUB-001,lateral_overhead,#2 ACSR,AB,0.31,1638.1,0.9137,0.4931,0.6985,150,12.47,2,1,,closed
EDGE-000269,JCT-FDR-0001-003,FUSE-XFMR-000133,FDR-0001,SUB-001,lateral_overhead,#4 CU,C,0.056,297.0,1.4855,0.4909,1.007,100,12.47,1,1,,closed
EDGE-000270,FUSE-XFMR-000133,XFMR-000133,FDR-0001,SUB-001,lateral_overhead,#4 CU,C,0.319,1683.0,1.6013,0.5323,1.007,100,12.47,1,1,,closed
EDGE-000271,JCT-FDR-0001-003,FUSE-XFMR-000134,FDR-0001,SUB-001,lateral_overhead,1/0 AL,AC,0.057,300.2,0.5618,0.5103,0.5345,230,12.47,2,1,,closed
EDGE-000272,FUSE-XFMR-000134,XFMR-000134,FDR-0001,SUB-001,lateral_overhead,1/0 AL,AC,0.322,1701.0,0.6474,0.4311,0.5345,230,12.47,2,1,,closed
EDGE-000273,JCT-FDR-0001-003,FUSE-XFMR-000135,FDR-0001,SUB-001,lateral_overhead,#4 CU,AC,0.058,308.9,1.6207,0.5141,1.007,100,12.47,2,1,,closed
EDGE-000274,FUSE-XFMR-000135,XFMR-000135,FDR-0001,SUB-001,lateral_overhead,#4 CU,AC,0.332,1750.3,1.6436,0.4765,1.007,100,12.47,2,1,,closed
EDGE-000275,JCT-FDR-0001-003,JCT-FDR-0001-004,FDR-0001,SUB-001,primary_overhead,795 ACSR,ABC,0.34,1795.2,0.1175,0.4249,0.2842,700,12.47,3,1,,closed
EDGE-000276,JCT-FDR-0001-004,FUSE-XFMR-000136,FDR-0001,SUB-001,lateral_overhead,4/0 AL,ABC,0.001,6.3,0.3114,0.3939,0.3655,340,12.47,3,1,,closed
EDGE-000277,FUSE-XFMR-000136,XFMR-000136,FDR-0001,SUB-001,lateral_overhead,4/0 AL,ABC,0.007,35.9,0.3112,0.4769,0.3655,340,12.47,3,1,,closed
EDGE-000278,JCT-FDR-0001-004,FUSE-XFMR-000137,FDR-0001,SUB-001,lateral_underground,#4 CU,AC,0.001,7.1,1.36,0.4945,1.007,100,12.47,2,0,,closed
EDGE-000279,FUSE-XFMR-000137,XFMR-000137,FDR-0001,SUB-001,lateral_underground,#4 CU,AC,0.008,40.4,1.3607,0.558,1.007,100,12.47,2,0,,closed
EDGE-000280,JCT-FDR-0001-004,FUSE-XFMR-000138,FDR-0001,SUB-001,lateral_overhead,1/0 AL,AB,0.003,13.5,0.6109,0.4843,0.5345,230,12.47,2,1,,closed
EDGE-000281,FUSE-XFMR-000138,XFMR-000138,FDR-0001,SUB-001,lateral_overhead,1/0 AL,AB,0.014,76.3,0.5981,0.4827,0.5345,230,12.47,2,1,,closed
EDGE-000282,JCT-FDR-0001-004,FUSE-XFMR-000139,FDR-0001,SUB-001,lateral_overhead,4/0 AL,C,0.004,21.4,0.3144,0.472,0.3655,340,12.47,1,1,,closed
EDGE-000283,FUSE-XFMR-000139,XFMR-000139,FDR-0001,SUB-001,lateral_overhead,4/0 AL,C,0.023,121.2,0.317,0.4554,0.3655,340,12.47,1,1,,closed
EDGE-000284,JCT-FDR-0001-004,FUSE-XFMR-000140,FDR-0001,SUB-001,lateral_overhead,#4 CU,B,0.005,25.3,1.5298,0.5101,1.007,100,12.47,1,1,,closed
EDGE-000285,FUSE-XFMR-000140,XFMR-000140,FDR-0001,SUB-001,lateral_overhead,#4 CU,B,0.027,143.6,1.3589,0.4906,1.007,100,12.47,1,1,,closed
EDGE-000286,JCT-FDR-0001-004,FUSE-XFMR-000141,FDR-0001,SUB-001,lateral_overhead,#2 ACSR,AB,0.007,35.6,0.8572,0.533,0.6985,150,12.47,2,1,,closed
EDGE-000287,FUSE-XFMR-000141,XFMR-000141,FDR-0001,SUB-001,lateral_overhead,#2 ACSR,AB,0.038,202.0,0.8657,0.5285,0.6985,150,12.47,2,1,,closed
EDGE-000288,JCT-FDR-0001-004,FUSE-XFMR-000142,FDR-0001,SUB-001,lateral_overhead,#2 ACSR,ABC,0.007,39.6,0.8681,0.5479,0.6985,150,12.47,3,1,,closed
EDGE-000289,FUSE-XFMR-000142,XFMR-000142,FDR-0001,SUB-001,lateral_overhead,#2 ACSR,ABC,0.043,224.4,0.9439,0.5209,0.6985,150,12.47,3,1,,closed
EDGE-000290,JCT-FDR-0001-004,FUSE-XFMR-000143,FDR-0001,SUB-001,lateral_overhead,4/0 AL,BC,0.009,49.9,0.2897,0.4325,0.3655,340,12.47,2,1,,closed
EDGE-000291,FUSE-XFMR-000143,XFMR-000143,FDR-0001,SUB-001,lateral_overhead,4/0 AL,BC,0.054,282.7,0.3152,0.4666,0.3655,340,12.47,2,1,,closed
EDGE-000292,JCT-FDR-0001-004,FUSE-XFMR-000144,FDR-0001,SUB-001,lateral_overhead,4/0 AL,AB,0.011,57.8,0.3049,0.4072,0.3655,340,12.47,2,1,,closed
EDGE-000293,FUSE-XFMR-000144,XFMR-000144,FDR-0001,SUB-001,lateral_overhead,4/0 AL,AB,0.062,327.6,0.3047,0.4766,0.3655,340,12.47,2,1,,closed
EDGE-000294,JCT-FDR-0001-004,FUSE-XFMR-000145,FDR-0001,SUB-001,lateral_overhead,4/0 AL,ABC,0.012,64.9,0.3259,0.3983,0.3655,340,12.47,3,1,,closed
EDGE-000295,FUSE-XFMR-000145,XFMR-000145,FDR-0001,SUB-001,lateral_overhead,4/0 AL,ABC,0.07,368.0,0.2779,0.4331,0.3655,340,12.47,3,1,,closed
EDGE-000296,JCT-FDR-0001-004,FUSE-XFMR-000146,FDR-0001,SUB-001,lateral_underground,#4 CU,AC,0.013,71.3,1.4967,0.5071,1.007,100,12.47,2,0,,closed
EDGE-000297,FUSE-XFMR-000146,XFMR-000146,FDR-0001,SUB-001,lateral_underground,#4 CU,AC,0.076,403.9,1.3792,0.4847,1.007,100,12.47,2,0,,closed
EDGE-000298,JCT-FDR-0001-004,FUSE-XFMR-000147,FDR-0001,SUB-001,lateral_overhead,#4 CU,BC,0.015,79.2,1.55,0.5212,1.007,100,12.47,2,1,,closed
EDGE-000299,FUSE-XFMR-000147,XFMR-000147,FDR-0001,SUB-001,lateral_overhead,#4 CU,BC,0.085,448.8,1.4738,0.4791,1.007,100,12.47,2,1,,closed
EDGE-000300,JCT-FDR-0001-004,FUSE-XFMR-000148,FDR-0001,SUB-001,lateral_overhead,#4 CU,AC,0.016,82.4,1.5857,0.5009,1.007,100,12.47,2,1,,closed
EDGE-000301,FUSE-XFMR-000148,XFMR-000148,FDR-0001,SUB-001,lateral_overhead,#4 CU,AC,0.088,466.8,1.4915,0.5053,1.007,100,12.47,2,1,,closed
EDGE-000302,JCT-FDR-0001-004,FUSE-XFMR-000149,FDR-0001,SUB-001,lateral_overhead,4/0 AL,C,0.017,88.7,0.3023,0.4582,0.3655,340,12.47,1,1,,closed
EDGE-000303,FUSE-XFMR-000149,XFMR-000149,FDR-0001,SUB-001,lateral_overhead,4/0 AL,C,0.095,502.7,0.3017,0.4252,0.3655,340,12.47,1,1,,closed
EDGE-000304,JCT-FDR-0001-004,FUSE-XFMR-000150,FDR-0001,SUB-001,lateral_overhead,#2 ACSR,B,0.018,97.4,0.8747,0.4869,0.6985,150,12.47,1,1,,closed
EDGE-000305,FUSE-XFMR-000150,XFMR-000150,FDR-0001,SUB-001,lateral_overhead,#2 ACSR,B,0.105,552.0,0.8224,0.5145,0.6985,150,12.47,1,1,,closed
EDGE-000306,JCT-FDR-0001-004,FUSE-XFMR-000151,FDR-0001,SUB-001,lateral_underground,#4 CU,BC,0.02,103.8,1.4269,0.4835,1.007,100,12.47,2,0,,closed
EDGE-000307,FUSE-XFMR-000151,XFMR-000151,FDR-0001,SUB-001,lateral_underground,#4 CU,BC,0.111,587.9,1.6089,0.5189,1.007,100,12.47,2,0,,closed
EDGE-000308,JCT-FDR-0001-004,FUSE-XFMR-000152,FDR-0001,SUB-001,lateral_overhead,#4 CU,C,0.021,110.1,1.61,0.5317,1.007,100,12.47,1,1,,closed
EDGE-000309,FUSE-XFMR-000152,XFMR-000152,FDR-0001,SUB-001,lateral_overhead,#4 CU,C,0.118,623.8,1.6331,0.4765,1.007,100,12.47,1,1,,closed
EDGE-000310,JCT-FDR-0001-004,FUSE-XFMR-000153,FDR-0001,SUB-001,lateral_overhead,#2 ACSR,A,0.023,121.2,0.8056,0.5476,0.6985,150,12.47,1,1,,closed
EDGE-000311,FUSE-XFMR-000153,XFMR-000153,FDR-0001,SUB-001,lateral_overhead,#2 ACSR,A,0.13,686.7,0.9046,0.4651,0.6985,150,12.47,1,1,,closed
EDGE-000312,JCT-FDR-0001-004,FUSE-XFMR-000154,FDR-0001,SUB-001,lateral_underground,1/0 AL,AB,0.024,124.3,0.5668,0.4771,0.5345,230,12.47,2,0,,closed
EDGE-000313,FUSE-XFMR-000154,XFMR-000154,FDR-0001,SUB-001,lateral_underground,1/0 AL,AB,0.133,704.6,0.5924,0.4373,0.5345,230,12.47,2,0,,closed
EDGE-000314,JCT-FDR-0001-004,FUSE-XFMR-000155,FDR-0001,SUB-001,lateral_overhead,4/0 AL,BC,0.025,131.5,0.2688,0.4463,0.3655,340,12.47,2,1,,closed
EDGE-000315,FUSE-XFMR-000155,XFMR-000155,FDR-0001,SUB-001,lateral_overhead,4/0 AL,BC,0.141,745.0,0.2943,0.4583,0.3655,340,12.47,2,1,,closed
EDGE-000316,JCT-FDR-0001-004,FUSE-XFMR-000156,FDR-0001,SUB-001,lateral_overhead,4/0 AL,A,0.026,139.4,0.2937,0.3925,0.3655,340,12.47,1,1,,closed
EDGE-000317,FUSE-XFMR-000156,XFMR-000156,FDR-0001,SUB-001,lateral_overhead,4/0 AL,A,0.15,789.9,0.3194,0.4408,0.3655,340,12.47,1,1,,closed
EDGE-000318,JCT-FDR-0001-004,FUSE-XFMR-000157,FDR-0001,SUB-001,lateral_underground,4/0 AL,ABC,0.028,145.7,0.27,0.4177,0.3655,340,12.47,3,0,,closed
EDGE-000319,FUSE-XFMR-000157,XFMR-000157,FDR-0001,SUB-001,lateral_underground,4/0 AL,ABC,0.156,825.8,0.3123,0.4528,0.3655,340,12.47,3,0,,closed
EDGE-000320,JCT-FDR-0001-004,FUSE-XFMR-000158,FDR-0001,SUB-001,lateral_overhead,#2 ACSR,AB,0.029,155.2,0.9786,0.5041,0.6985,150,12.47,2,1,,closed
EDGE-000321,FUSE-XFMR-000158,XFMR-000158,FDR-0001,SUB-001,lateral_overhead,#2 ACSR,AB,0.167,879.6,0.9003,0.5221,0.6985,150,12.47,2,1,,closed
EDGE-000322,JCT-FDR-0001-004,FUSE-XFMR-000159,FDR-0001,SUB-001,lateral_overhead,4/0 AL,ABC,0.03,160.8,0.2944,0.3922,0.3655,340,12.47,3,1,,closed
EDGE-000323,FUSE-XFMR-000159,XFMR-000159,FDR-0001,SUB-001,lateral_overhead,4/0 AL,ABC,0.173,911.1,0.2745,0.4277,0.3655,340,12.47,3,1,,closed
EDGE-000324,JCT-FDR-0001-004,FUSE-XFMR-000160,FDR-0001,SUB-001,lateral_overhead,#4 CU,C,0.032,168.7,1.6129,0.5386,1.007,100,12.47,1,1,,closed
EDGE-000325,FUSE-XFMR-000160,XFMR-000160,FDR-0001,SUB-001,lateral_overhead,#4 CU,C,0.181,955.9,1.3636,0.5005,1.007,100,12.47,1,1,,closed
EDGE-000326,JCT-FDR-0001-004,FUSE-XFMR-000161,FDR-0001,SUB-001,lateral_underground,4/0 AL,ABC,0.033,175.8,0.2713,0.4226,0.3655,340,12.47,3,0,,closed
EDGE-000327,FUSE-XFMR-000161,XFMR-000161,FDR-0001,SUB-001,lateral_underground,4/0 AL,ABC,0.189,996.3,0.3193,0.4659,0.3655,340,12.47,3,0,,closed
EDGE-000328,JCT-FDR-0001-004,FUSE-XFMR-000162,FDR-0001,SUB-001,lateral_overhead,4/0 AL,ABC,0.034,181.4,0.3226,0.4071,0.3655,340,12.47,3,1,,closed
EDGE-000329,FUSE-XFMR-000162,XFMR-000162,FDR-0001,SUB-001,lateral_overhead,4/0 AL,ABC,0.195,1027.8,0.27,0.4406,0.3655,340,12.47,3,1,,closed
EDGE-000330,JCT-FDR-0001-004,FUSE-XFMR-000163,FDR-0001,SUB-001,lateral_overhead,1/0 AL,AC,0.036,187.7,0.6299,0.5211,0.5345,230,12.47,2,1,,closed
EDGE-000331,FUSE-XFMR-000163,XFMR-000163,FDR-0001,SUB-001,lateral_overhead,1/0 AL,AC,0.201,1063.7,0.6057,0.4807,0.5345,230,12.47,2,1,,closed
EDGE-000332,JCT-FDR-0001-004,FUSE-XFMR-000164,FDR-0001,SUB-001,lateral_overhead,#2 ACSR,A,0.037,195.6,0.8113,0.5132,0.6985,150,12.47,1,1,,closed
EDGE-000333,FUSE-XFMR-000164,XFMR-000164,FDR-0001,SUB-001,lateral_overhead,#2 ACSR,A,0.21,1108.5,0.8126,0.5307,0.6985,150,12.47,1,1,,closed
EDGE-000334,JCT-FDR-0001-004,FUSE-XFMR-000165,FDR-0001,SUB-001,lateral_overhead,#4 CU,A,0.038,202.8,1.4919,0.5483,1.007,100,12.47,1,1,,closed
EDGE-000335,FUSE-XFMR-000165,XFMR-000165,FDR-0001,SUB-001,lateral_overhead,#4 CU,A,0.218,1148.9,1.4935,0.462,1.007,100,12.47,1,1,,closed
EDGE-000336,JCT-FDR-0001-004,FUSE-XFMR-000166,FDR-0001,SUB-001,lateral_overhead,4/0 AL,BC,0.039,208.3,0.2912,0.4562,0.3655,340,12.47,2,1,,closed
EDGE-000337,FUSE-XFMR-000166,XFMR-000166,FDR-0001,SUB-001,lateral_overhead,4/0 AL,BC,0.224,1180.3,0.3135,0.4081,0.3655,340,12.47,2,1,,closed
EDGE-000338,JCT-FDR-0001-004,FUSE-XFMR-000167,FDR-0001,SUB-001,lateral_overhead,1/0 AL,B,0.041,214.6,0.5671,0.4924,0.5345,230,12.47,1,1,,closed
EDGE-000339,FUSE-XFMR-000167,XFMR-000167,FDR-0001,SUB-001,lateral_overhead,1/0 AL,B,0.23,1216.2,0.6153,0.4934,0.5345,230,12.47,1,1,,closed
EDGE-000340,JCT-FDR-0001-004,FUSE-XFMR-000168,FDR-0001,SUB-001,lateral_underground,#2 ACSR,BC,0.042,221.8,0.921,0.4644,0.6985,150,12.47,2,0,,closed
EDGE-000341,FUSE-XFMR-000168,XFMR-000168,FDR-0001,SUB-001,lateral_underground,#2 ACSR,BC,0.238,1256.6,0.9359,0.4971,0.6985,150,12.47,2,0,,closed
EDGE-000342,JCT-FDR-0001-004,FUSE-XFMR-000169,FDR-0001,SUB-001,lateral_overhead,1/0 AL,ABC,0.043,228.1,0.5413,0.4804,0.5345,230,12.47,3,1,,closed
EDGE-000343,FUSE-XFMR-000169,XFMR-000169,FDR-0001,SUB-001,lateral_overhead,1/0 AL,ABC,0.245,1292.5,0.631,0.441,0.5345,230,12.47,3,1,,closed
EDGE-000344,JCT-FDR-0001-004,FUSE-XFMR-000170,FDR-0001,SUB-001,lateral_overhead,4/0 AL,A,0.045,239.2,0.3056,0.43,0.3655,340,12.47,1,1,,closed
EDGE-000345,FUSE-XFMR-000170,XFMR-000170,FDR-0001,SUB-001,lateral_overhead,4/0 AL,A,0.257,1355.4,0.279,0.453,0.3655,340,12.47,1,1,,closed
EDGE-000346,JCT-FDR-0001-004,FUSE-XFMR-000171,FDR-0001,SUB-001,lateral_overhead,1/0 AL,AC,0.046,242.4,0.6455,0.4959,0.5345,230,12.47,2,1,,closed
EDGE-000347,FUSE-XFMR-000171,XFMR-000171,FDR-0001,SUB-001,lateral_overhead,1/0 AL,AC,0.26,1373.3,0.6036,0.5181,0.5345,230,12.47,2,1,,closed
EDGE-000348,JCT-FDR-0001-004,FUSE-XFMR-000172,FDR-0001,SUB-001,lateral_overhead,#4 CU,B,0.048,253.4,1.5864,0.5219,1.007,100,12.47,1,1,,closed
EDGE-000349,FUSE-XFMR-000172,XFMR-000172,FDR-0001,SUB-001,lateral_overhead,#4 CU,B,0.272,1436.2,1.4619,0.5422,1.007,100,12.47,1,1,,closed
EDGE-000350,JCT-FDR-0001-004,FUSE-XFMR-000173,FDR-0001,SUB-001,lateral_underground,4/0 AL,BC,0.05,261.4,0.3076,0.4454,0.3655,340,12.47,2,0,,closed
EDGE-000351,FUSE-XFMR-000173,XFMR-000173,FDR-0001,SUB-001,lateral_underground,4/0 AL,BC,0.281,1481.0,0.3052,0.439,0.3655,340,12.47,2,0,,closed
EDGE-000352,JCT-FDR-0001-004,FUSE-XFMR-000174,FDR-0001,SUB-001,lateral_overhead,#2 ACSR,C,0.05,263.7,0.8222,0.4546,0.6985,150,12.47,1,1,,closed
EDGE-000353,FUSE-XFMR-000174,XFMR-000174,FDR-0001,SUB-001,lateral_overhead,#2 ACSR,C,0.283,1494.5,0.9101,0.4921,0.6985,150,12.47,1,1,,closed
EDGE-000354,JCT-FDR-0001-004,FUSE-XFMR-000175,FDR-0001,SUB-001,lateral_overhead,4/0 AL,B,0.051,270.1,0.3078,0.4199,0.3655,340,12.47,1,1,,closed
EDGE-000355,FUSE-XFMR-000175,XFMR-000175,FDR-0001,SUB-001,lateral_overhead,4/0 AL,B,0.29,1530.4,0.3194,0.4038,0.3655,340,12.47,1,1,,closed
EDGE-000356,JCT-FDR-0001-004,FUSE-XFMR-000176,FDR-0001,SUB-001,lateral_underground,#4 CU,BC,0.053,278.8,1.5823,0.5588,1.007,100,12.47,2,0,,closed
EDGE-000357,FUSE-XFMR-000176,XFMR-000176,FDR-0001,SUB-001,lateral_underground,#4 CU,BC,0.299,1579.8,1.5069,0.4671,1.007,100,12.47,2,0,,closed
EDGE-000358,JCT-FDR-0001-004,FUSE-XFMR-000177,FDR-0001,SUB-001,lateral_overhead,1/0 AL,C,0.055,288.3,0.574,0.5166,0.5345,230,12.47,1,1,,closed
EDGE-000359,FUSE-XFMR-000177,XFMR-000177,FDR-0001,SUB-001,lateral_overhead,1/0 AL,C,0.309,1633.6,0.6091,0.4766,0.5345,230,12.47,1,1,,closed
EDGE-000360,JCT-FDR-0001-004,FUSE-XFMR-000178,FDR-0001,SUB-001,lateral_underground,4/0 AL,AC,0.055,291.5,0.2723,0.4455,0.3655,340,12.47,2,0,,closed
EDGE-000361,FUSE-XFMR-000178,XFMR-000178,FDR-0001,SUB-001,lateral_underground,4/0 AL,AC,0.313,1651.6,0.2703,0.4362,0.3655,340,12.47,2,0,,closed
EDGE-000362,JCT-FDR-0001-004,FUSE-XFMR-000179,FDR-0001,SUB-001,lateral_overhead,1/0 AL,AB,0.057,298.6,0.5934,0.4736,0.5345,230,12.47,2,1,,closed
EDGE-000363,FUSE-XFMR-000179,XFMR-000179,FDR-0001,SUB-001,lateral_overhead,1/0 AL,AB,0.32,1692.0,0.5587,0.5032,0.5345,230,12.47,2,1,,closed
EDGE-000364,JCT-FDR-0001-004,FUSE-XFMR-000180,FDR-0001,SUB-001,lateral_overhead,4/0 AL,AC,0.058,308.1,0.2949,0.4557,0.3655,340,12.47,2,1,,closed
EDGE-000365,FUSE-XFMR-000180,XFMR-000180,FDR-0001,SUB-001,lateral_overhead,4/0 AL,AC,0.331,1745.8,0.2975,0.441,0.3655,340,12.47,2,1,,closed
EDGE-000366,JCT-FDR-0001-004,JCT-FDR-0001-005,FDR-0001,SUB-001,primary_overhead,795 ACSR,ABC,0.33,1742.4,0.1383,0.4098,0.2609,700,12.47,3,1,,closed
EDGE-000367,JCT-FDR-0001-005,FUSE-XFMR-000181,FDR-0001,SUB-001,lateral_underground,#4 CU,ABC,0.001,6.3,1.463,0.5402,1.007,100,12.47,3,0,,closed
EDGE-000368,FUSE-XFMR-000181,XFMR-000181,FDR-0001,SUB-001,lateral_underground,#4 CU,ABC,0.007,35.9,1.3853,0.492,1.007,100,12.47,3,0,,closed
EDGE-000369,JCT-FDR-0001-005,FUSE-XFMR-000182,FDR-0001,SUB-001,lateral_overhead,#2 ACSR,AC,0.002,9.5,0.9412,0.4668,0.6985,150,12.47,2,1,,closed
EDGE-000370,FUSE-XFMR-000182,XFMR-000182,FDR-0001,SUB-001,lateral_overhead,#2 ACSR,AC,0.01,53.9,0.9476,0.4949,0.6985,150,12.47,2,1,,closed
EDGE-000371,JCT-FDR-0001-005,FUSE-XFMR-000183,FDR-0001,SUB-001,lateral_overhead,4/0 AL,B,0.003,15.8,0.3022,0.3922,0.3655,340,12.47,1,1,,closed
EDGE-000372,FUSE-XFMR-000183,XFMR-000183,FDR-0001,SUB-001,lateral_overhead,4/0 AL,B,0.017,89.8,0.2756,0.4092,0.3655,340,12.47,1,1,,closed
EDGE-000373,JCT-FDR-0001-005,FUSE-XFMR-000184,FDR-0001,SUB-001,lateral_overhead,1/0 AL,AB,0.004,23.0,0.5587,0.4638,0.5345,230,12.47,2,1,,closed
EDGE-000374,FUSE-XFMR-000184,XFMR-000184,FDR-0001,SUB-001,lateral_overhead,1/0 AL,AB,0.025,130.2,0.6119,0.4321,0.5345,230,12.47,2,1,,closed
EDGE-000375,JCT-FDR-0001-005,FUSE-XFMR-000185,FDR-0001,SUB-001,lateral_underground,1/0 AL,AC,0.006,31.7,0.6073,0.4874,0.5345,230,12.47,2,0,,closed
EDGE-000376,FUSE-XFMR-000185,XFMR-000185,FDR-0001,SUB-001,lateral_underground,1/0 AL,AC,0.034,179.5,0.58,0.5088,0.5345,230,12.47,2,0,,closed
EDGE-000377,JCT-FDR-0001-005,FUSE-XFMR-000186,FDR-0001,SUB-001,lateral_overhead,1/0 AL,C,0.007,38.8,0.5496,0.4394,0.5345,230,12.47,1,1,,closed
EDGE-000378,FUSE-XFMR-000186,XFMR-000186,FDR-0001,SUB-001,lateral_overhead,1/0 AL,C,0.042,219.9,0.5637,0.4438,0.5345,230,12.47,1,1,,closed
EDGE-000379,JCT-FDR-0001-005,FUSE-XFMR-000187,FDR-0001,SUB-001,lateral_overhead,1/0 AL,AB,0.008,41.2,0.5818,0.4573,0.5345,230,12.47,2,1,,closed
EDGE-000380,FUSE-XFMR-000187,XFMR-000187,FDR-0001,SUB-001,lateral_overhead,1/0 AL,AB,0.044,233.4,0.5656,0.4838,0.5345,230,12.47,2,1,,closed
EDGE-000381,JCT-FDR-0001-005,FUSE-XFMR-000188,FDR-0001,SUB-001,lateral_overhead,#2 ACSR,ABC,0.009,47.5,0.8603,0.5157,0.6985,150,12.47,3,1,,closed
EDGE-000382,FUSE-XFMR-000188,XFMR-000188,FDR-0001,SUB-001,lateral_overhead,#2 ACSR,ABC,0.051,269.3,0.8795,0.5411,0.6985,150,12.47,3,1,,closed
EDGE-000383,JCT-FDR-0001-005,FUSE-XFMR-000189,FDR-0001,SUB-001,lateral_overhead,1/0 AL,ABC,0.011,57.8,0.6151,0.4586,0.5345,230,12.47,3,1,,closed
EDGE-000384,FUSE-XFMR-000189,XFMR-000189,FDR-0001,SUB-001,lateral_overhead,1/0 AL,ABC,0.062,327.6,0.6105,0.5113,0.5345,230,12.47,3,1,,closed
EDGE-000385,JCT-FDR-0001-005,FUSE-XFMR-000190,FDR-0001,SUB-001,lateral_overhead,1/0 AL,AB,0.012,63.4,0.5617,0.4831,0.5345,230,12.47,2,1,,closed
EDGE-000386,FUSE-XFMR-000190,XFMR-000190,FDR-0001,SUB-001,lateral_overhead,1/0 AL,AB,0.068,359.0,0.5393,0.4423,0.5345,230,12.47,2,1,,closed
EDGE-000387,JCT-FDR-0001-005,FUSE-XFMR-000191,FDR-0001,SUB-001,lateral_underground,1/0 AL,ABC,0.014,72.9,0.6398,0.5163,0.5345,230,12.47,3,0,,closed
EDGE-000388,FUSE-XFMR-000191,XFMR-000191,FDR-0001,SUB-001,lateral_underground,1/0 AL,ABC,0.078,412.9,0.5829,0.4778,0.5345,230,12.47,3,0,,closed
EDGE-000389,JCT-FDR-0001-005,FUSE-XFMR-000192,FDR-0001,SUB-001,lateral_underground,4/0 AL,BC,0.015,80.8,0.2702,0.4354,0.3655,340,12.47,2,0,,closed
EDGE-000390,FUSE-XFMR-000192,XFMR-000192,FDR-0001,SUB-001,lateral_underground,4/0 AL,BC,0.087,457.8,0.2782,0.4483,0.3655,340,12.47,2,0,,closed
EDGE-000391,JCT-FDR-0001-005,FUSE-XFMR-000193,FDR-0001,SUB-001,lateral_underground,#2 ACSR,B,0.016,85.5,0.8428,0.5101,0.6985,150,12.47,1,0,,closed
EDGE-000392,FUSE-XFMR-000193,XFMR-000193,FDR-0001,SUB-001,lateral_underground,#2 ACSR,B,0.092,484.7,0.8467,0.4618,0.6985,150,12.47,1,0,,closed
EDGE-000393,JCT-FDR-0001-005,FUSE-XFMR-000194,FDR-0001,SUB-001,lateral_overhead,#2 ACSR,C,0.017,91.9,0.9558,0.4658,0.6985,150,12.47,1,1,,closed
EDGE-000394,FUSE-XFMR-000194,XFMR-000194,FDR-0001,SUB-001,lateral_overhead,#2 ACSR,C,0.099,520.6,0.8748,0.5263,0.6985,150,12.47,1,1,,closed
EDGE-000395,JCT-FDR-0001-005,FUSE-XFMR-000195,FDR-0001,SUB-001,lateral_overhead,1/0 AL,BC,0.019,100.6,0.5606,0.493,0.5345,230,12.47,2,1,,closed
EDGE-000396,FUSE-XFMR-000195,XFMR-000195,FDR-0001,SUB-001,lateral_overhead,1/0 AL,BC,0.108,570.0,0.5769,0.481,0.5345,230,12.47,2,1,,closed
EDGE-000397,JCT-FDR-0001-005,FUSE-XFMR-000196,FDR-0001,SUB-001,lateral_overhead,#4 CU,AC,0.02,106.1,1.3637,0.553,1.007,100,12.47,2,1,,closed
EDGE-000398,FUSE-XFMR-000196,XFMR-000196,FDR-0001,SUB-001,lateral_overhead,#4 CU,AC,0.114,601.4,1.4574,0.4894,1.007,100,12.47,2,1,,closed
EDGE-000399,JCT-FDR-0001-005,FUSE-XFMR-000197,FDR-0001,SUB-001,lateral_overhead,#4 CU,B,0.022,114.0,1.6262,0.5406,1.007,100,12.47,1,1,,closed
EDGE-000400,FUSE-XFMR-000197,XFMR-000197,FDR-0001,SUB-001,lateral_overhead,#4 CU,B,0.122,646.3,1.4298,0.4904,1.007,100,12.47,1,1,,closed
EDGE-000401,JCT-FDR-0001-005,FUSE-XFMR-000198,FDR-0001,SUB-001,lateral_underground,4/0 AL,BC,0.023,119.6,0.3025,0.4729,0.3655,340,12.47,2,0,,closed
EDGE-000402,FUSE-XFMR-000198,XFMR-000198,FDR-0001,SUB-001,lateral_underground,4/0 AL,BC,0.128,677.7,0.3125,0.4519,0.3655,340,12.47,2,0,,closed
EDGE-000403,JCT-FDR-0001-005,FUSE-XFMR-000199,FDR-0001,SUB-001,lateral_overhead,#2 ACSR,C,0.024,128.3,0.8975,0.5511,0.6985,150,12.47,1,1,,closed
EDGE-000404,FUSE-XFMR-000199,XFMR-000199,FDR-0001,SUB-001,lateral_overhead,#2 ACSR,C,0.138,727.1,0.9615,0.5294,0.6985,150,12.47,1,1,,closed
EDGE-000405,JCT-FDR-0001-005,FUSE-XFMR-000200,FDR-0001,SUB-001,lateral_overhead,#4 CU,C,0.025,133.1,1.4169,0.4883,1.007,100,12.47,1,1,,closed
EDGE-000406,FUSE-XFMR-000200,XFMR-000200,FDR-0001,SUB-001,lateral_overhead,#4 CU,C,0.143,754.0,1.622,0.4784,1.007,100,12.47,1,1,,closed
EDGE-000407,JCT-FDR-0001-005,FUSE-XFMR-000201,FDR-0001,SUB-001,lateral_overhead,#2 ACSR,AC,0.026,139.4,0.8057,0.4918,0.6985,150,12.47,2,1,,closed
EDGE-000408,FUSE-XFMR-000201,XFMR-000201,FDR-0001,SUB-001,lateral_overhead,#2 ACSR,AC,0.15,789.9,0.8713,0.4831,0.6985,150,12.47,2,1,,closed
EDGE-000409,JCT-FDR-0001-005,FUSE-XFMR-000202,FDR-0001,SUB-001,lateral_overhead,1/0 AL,B,0.028,149.7,0.5849,0.4311,0.5345,230,12.47,1,1,,closed
EDGE-000410,FUSE-XFMR-000202,XFMR-000202,FDR-0001,SUB-001,lateral_overhead,1/0 AL,B,0.161,848.2,0.623,0.4897,0.5345,230,12.47,1,1,,closed
EDGE-000411,JCT-FDR-0001-005,FUSE-XFMR-000203,FDR-0001,SUB-001,lateral_overhead,4/0 AL,BC,0.029,154.4,0.306,0.4573,0.3655,340,12.47,2,1,,closed
EDGE-000412,FUSE-XFMR-000203,XFMR-000203,FDR-0001,SUB-001,lateral_overhead,4/0 AL,BC,0.166,875.2,0.3142,0.4561,0.3655,340,12.47,2,1,,closed
EDGE-000413,JCT-FDR-0001-005,FUSE-XFMR-000204,FDR-0001,SUB-001,lateral_overhead,1/0 AL,C,0.031,161.6,0.6285,0.4509,0.5345,230,12.47,1,1,,closed
EDGE-000414,FUSE-XFMR-000204,XFMR-000204,FDR-0001,SUB-001,lateral_overhead,1/0 AL,C,0.173,915.6,0.5532,0.4729,0.5345,230,12.47,1,1,,closed
EDGE-000415,JCT-FDR-0001-005,FUSE-XFMR-000205,FDR-0001,SUB-001,lateral_overhead,1/0 AL,C,0.032,168.7,0.5778,0.4359,0.5345,230,12.47,1,1,,closed
EDGE-000416,FUSE-XFMR-000205,XFMR-000205,FDR-0001,SUB-001,lateral_overhead,1/0 AL,C,0.181,955.9,0.6117,0.5116,0.5345,230,12.47,1,1,,closed
EDGE-000417,JCT-FDR-0001-005,FUSE-XFMR-000206,FDR-0001,SUB-001,lateral_overhead,4/0 AL,C,0.034,178.2,0.2677,0.4376,0.3655,340,12.47,1,1,,closed
EDGE-000418,FUSE-XFMR-000206,XFMR-000206,FDR-0001,SUB-001,lateral_overhead,4/0 AL,C,0.191,1009.8,0.3106,0.44,0.3655,340,12.47,1,1,,closed
EDGE-000419,JCT-FDR-0001-005,FUSE-XFMR-000207,FDR-0001,SUB-001,lateral_overhead,#2 ACSR,BC,0.035,185.3,0.834,0.4568,0.6985,150,12.47,2,1,,closed
EDGE-000420,FUSE-XFMR-000207,XFMR-000207,FDR-0001,SUB-001,lateral_overhead,#2 ACSR,BC,0.199,1050.2,0.9238,0.4698,0.6985,150,12.47,2,1,,closed
...